<net>
    <!-- Define the nodes (intersections) -->
    <nodes>
        <!-- Row 1 -->
        <node id="1" x="0.0" y="0.0" type="traffic_light"/>
        <node id="2" x="100.0" y="0.0" type="priority"/>
        <node id="3" x="200.0" y="0.0" type="priority"/>
        <node id="4" x="300.0" y="0.0" type="priority"/>
        <node id="5" x="400.0" y="0.0" type="traffic_light"/>

        <!-- Row 2 -->
        <node id="6" x="0.0" y="100.0" type="priority"/>
        <node id="7" x="100.0" y="100.0" type="priority"/>
        <node id="8" x="200.0" y="100.0" type="priority"/>
        <node id="9" x="300.0" y="100.0" type="priority"/>
        <node id="10" x="400.0" y="100.0" type="priority"/>

        <!-- Row 3 -->
        <node id="11" x="0.0" y="200.0" type="priority"/>
        <node id="12" x="100.0" y="200.0" type="priority"/>
        <node id="13" x="200.0" y="200.0" type="priority"/>
        <node id="14" x="300.0" y="200.0" type="priority"/>
        <node id="15" x="400.0" y="200.0" type="priority"/>

        <!-- Row 4 -->
        <node id="16" x="0.0" y="300.0" type="priority"/>
        <node id="17" x="100.0" y="300.0" type="priority"/>
        <node id="18" x="200.0" y="300.0" type="priority"/>
        <node id="19" x="300.0" y="300.0" type="priority"/>
        <node id="20" x="400.0" y="300.0" type="priority"/>

        <!-- Row 5 -->
        <node id="21" x="0.0" y="400.0" type="traffic_light"/>
        <node id="22" x="100.0" y="400.0" type="priority"/>
        <node id="23" x="200.0" y="400.0" type="priority"/>
        <node id="24" x="300.0" y="400.0" type="priority"/>
        <node id="25" x="400.0" y="400.0" type="traffic_light"/>

        <!-- Row 6 -->
        <node id="26" x="0.0" y="500.0" type="priority"/>
        <node id="27" x="100.0" y="500.0" type="priority"/>
        <node id="28" x="200.0" y="500.0" type="priority"/>
        <node id="29" x="300.0" y="500.0" type="priority"/>
        <node id="30" x="400.0" y="500.0" type="priority"/>

        <!-- Row 7 -->
        <node id="31" x="0.0" y="600.0" type="priority"/>
        <node id="32" x="100.0" y="600.0" type="priority"/>
        <node id="33" x="200.0" y="600.0" type="priority"/>
        <node id="34" x="300.0" y="600.0" type="priority"/>
        <node id="35" x="400.0" y="600.0" type="priority"/>

        <!-- Row 8 -->
        <node id="36" x="0.0" y="700.0" type="priority"/>
        <node id="37" x="100.0" y="700.0" type="priority"/>
        <node id="38" x="200.0" y="700.0" type="priority"/>
        <node id="39" x="300.0" y="700.0" type="priority"/>
        <node id="40" x="400.0" y="700.0" type="priority"/>

        <!-- Row 9 -->
        <node id="41" x="0.0" y="800.0" type="traffic_light"/>
        <node id="42" x="100.0" y="800.0" type="priority"/>
        <node id="43" x="200.0" y="800.0" type="priority"/>
        <node id="44" x="300.0" y="800.0" type="priority"/>
        <node id="45" x="400.0" y="800.0" type="traffic_light"/>

        <!-- Row 10 -->
        <node id="46" x="0.0" y="900.0" type="priority"/>
        <node id="47" x="100.0" y="900.0" type="priority"/>
        <node id="48" x="200.0" y="900.0" type="priority"/>
        <node id="49" x="300.0" y="900.0" type="priority"/>
        <node id="50" x="400.0" y="900.0" type="priority"/>
    </nodes>

    <!-- Define the edges (roads) -->
    <edges>
        <!-- Row 1 -->
        <edge id="1to2" from="1" to="2" priority="1"/>
        <edge id="2to3" from="2" to="3" priority="1"/>
        <edge id="3to4" from="3" to="4" priority="1"/>
        <edge id="4to5" from="4" to="5" priority="1"/>
        <edge id="2to1" from="2" to="1" priority="1"/>
        <edge id="3to2" from="3" to="2" priority="1"/>
        <edge id="4to3" from="4" to="3" priority="1"/>
        <edge id="5to4" from="5" to="4" priority="1"/>

        <!-- Row 2 -->
        <edge id="6to7" from="6" to="7" priority="1"/>
        <edge id="7to8" from="7" to="8" priority="1"/>
        <edge id="8to9" from="8" to="9" priority="1"/>
        <edge id="9to10" from="9" to="10" priority="1"/>
        <edge id="7to6" from="7" to="6" priority="1"/>
        <edge id="8to7" from="8" to="7" priority="1"/>
        <edge id="9to8" from="9" to="8" priority="1"/>
        <edge id="10to9" from="10" to="9" priority="1"/>

        <!-- Row 3 -->
        <edge id="11to12" from="11" to="12" priority="1"/>
        <edge id="12to13" from="12" to="13" priority="1"/>
        <edge id="13to14" from="13" to="14" priority="1"/>
        <edge id="14to15" from="14" to="15" priority="1"/>
        <edge id="12to11" from="12" to="11" priority="1"/>
        <edge id="13to12" from="13" to="12" priority="1"/>
        <edge id="14to13" from="14" to="13" priority="1"/>
        <edge id="15to14" from="15" to="14" priority="1"/>

        <!-- Row 4 -->
        <edge id="16to17" from="16" to="17" priority="1"/>
        <edge id="17to18" from="17" to="18" priority="1"/>
        <edge id="18to19" from="18" to="19" priority="1"/>
        <edge id="19to20" from="19" to="20" priority="1"/>
        <edge id="17to16" from="17" to="16" priority="1"/>
        <edge id="18to17" from="18" to="17" priority="1"/>
        <edge id="19to18" from="19" to="18" priority="1"/>
        <edge id="20to19" from="20" to="19" priority="1"/>

        <!-- Row 5 -->
                <!-- Row 5 -->
        <edge id="21to22" from="21" to="22" priority="1"/>
        <edge id="22to23" from="22" to="23" priority="1"/>
        <edge id="23to24" from="23" to="24" priority="1"/>
        <edge id="24to25" from="24" to="25" priority="1"/>
        <edge id="22to21" from="22" to="21" priority="1"/>
        <edge id="23to22" from="23" to="22" priority="1"/>
        <edge id="24to23" from="24" to="23" priority="1"/>
        <edge id="25to24" from="25" to="24" priority="1"/>

        <!-- Row 6 -->
        <edge id="26to27" from="26" to="27" priority="1"/>
        <edge id="27to28" from="27" to="28" priority="1"/>
        <edge id="28to29" from="28" to="29" priority="1"/>
        <edge id="29to30" from="29" to="30" priority="1"/>
        <edge id="27to26" from="27" to="26" priority="1"/>
        <edge id="28to27" from="28" to="27" priority="1"/>
        <edge id="29to28" from="29" to="28" priority="1"/>
        <edge id="30to29" from="30" to="29" priority="1"/>

        <!-- Row 7 -->
        <edge id="31to32" from="31" to="32" priority="1"/>
        <edge id="32to33" from="32" to="33" priority="1"/>
        <edge id="33to34" from="33" to="34" priority="1"/>
        <edge id="34to35" from="34" to="35" priority="1"/>
        <edge id="32to31" from="32" to="31" priority="1"/>
        <edge id="33to32" from="33" to="32" priority="1"/>
        <edge id="34to33" from="34" to="33" priority="1"/>
        <edge id="35to34" from="35" to="34" priority="1"/>

        <!-- Row 8 -->
        <edge id="36to37" from="36" to="37" priority="1"/>
        <edge id="37to38" from="37" to="38" priority="1"/>
        <edge id="38to39" from="38" to="39" priority="1"/>
        <edge id="39to40" from="39" to="40" priority="1"/>
        <edge id="37to36" from="37" to="36" priority="1"/>
        <edge id="38to37" from="38" to="37" priority="1"/>
        <edge id="39to38" from="39" to="38" priority="1"/>
        <edge id="40to39" from="40" to="39" priority="1"/>

        <!-- Row 9 -->
        <edge id="41to42" from="41" to="42" priority="1"/>
        <edge id="42to43" from="42" to="43" priority="1"/>
        <edge id="43to44" from="43" to="44" priority="1"/>
        <edge id="44to45" from="44" to="45" priority="1"/>
        <edge id="42to41" from="42" to="41" priority="1"/>
        <edge id="43to42" from="43" to="42" priority="1"/>
        <edge id="44to43" from="44" to="43" priority="1"/>
        <edge id="45to44" from="45" to="44" priority="1"/>

        <!-- Row 10 -->
        <edge id="46to47" from="46" to="47" priority="1"/>
        <edge id="47to48" from="47" to="48" priority="1"/>
        <edge id="48to49" from="48" to="49" priority="1"/>
        <edge id="49to50" from="49" to="50" priority="1"/>
        <edge id="47to46" from="47" to="46" priority="1"/>
        <edge id="48to47" from="48" to="47" priority="1"/>
        <edge id="49to48" from="49" to="48" priority="1"/>
        <edge id="50to49" from="50" to="49" priority="1"/>

        <!-- Vertical connections (columns) -->
        <!-- Column 1 -->
        <edge id="1to6" from="1" to="6" priority="1"/>
        <edge id="6to11" from="6" to="11" priority="1"/>
        <edge id="11to16" from="11" to="16" priority="1"/>
        <edge id="16to21" from="16" to="21" priority="1"/>
        <edge id="21to26" from="21" to="26" priority="1"/>
        <edge id="26to31" from="26" to="31" priority="1"/>
        <edge id="31to36" from="31" to="36" priority="1"/>
        <edge id="36to41" from="36" to="41" priority="1"/>
        <edge id="41to46" from="41" to="46" priority="1"/>
        <edge id="6to1" from="6" to="1" priority="1"/>
        <edge id="11to6" from="11" to="6" priority="1"/>
        <edge id="16to11" from="16" to="11" priority="1"/>
        <edge id="21to16" from="21" to="16" priority="1"/>
        <edge id="26to21" from="26" to="21" priority="1"/>
        <edge id="31to26" from="31" to="26" priority="1"/>
        <edge id="36to31" from="36" to="31" priority="1"/>
        <edge id="41to36" from="41" to="36" priority="1"/>
        <edge id="46to41" from="46" to="41" priority="1"/>

        <!-- Column 2 -->
        <edge id="2to7" from="2" to="7" priority="1"/>
        <edge id="7to12" from="7" to="12" priority="1"/>
        <edge id="12to17" from="12" to="17" priority="1"/>
        <edge id="17to22" from="17" to="22" priority="1"/>
        <edge id="22to27" from="22" to="27" priority="1"/>
        <edge id="27to32" from="27" to="32" priority="1"/>
        <edge id="32to37" from="32" to="37" priority="1"/>
        <edge id="37to42" from="37" to="42" priority="1"/>
        <edge id="42to47" from="42" to="47" priority="1"/>
        <edge id="7to2" from="7" to="2" priority="1"/>
        <edge id="12to7" from="12" to="7" priority="1"/>
        <edge id="17to12" from="17" to="12" priority="1"/>
        <edge id="22to17" from="22" to="17" priority="1"/>
        <edge id="27to22" from="27" to="22" priority="1"/>
        <edge id="32to27" from="32" to="27" priority="1"/>
        <edge id="37to32" from="37" to="32" priority="1"/>
        <edge id="42to37" from="42" to="37" priority="1"/>
        <edge id="47to42" from="47" to="42" priority="1"/>

        <!-- Column 3 -->
        <edge id="3to8" from="3" to="8" priority="1"/>
        <edge id="8to13" from="8" to="13" priority="1"/>
        <edge id="13to18" from="13" to="18" priority="1"/>
        <edge id="18to23" from="18" to="23" priority="1"/>
        <edge id="23to28" from="23" to="28" priority="1"/>
        <edge id="28to33" from="28" to="33" priority="1"/>
        <edge id="33to38" from="33" to="38" priority="1"/>
        <edge id="38to43" from="38" to="43" priority="1"/>
        <edge id="43to48" from="43" to="48" priority="1"/>
        <edge id="8to3" from="8" to="3" priority="1"/>
        <edge id="13to8" from="13" to="8" priority="1"/>
        <edge id="18to13" from="18" to="13" priority="1"/>
        <edge id="23to18" from="23" to="18" priority="1"/>
        <edge id="28to23" from="28" to="23" priority="1"/>
        <edge id="33to28" from="33" to="28" priority="1"/>
        <edge id="38to33" from="38" to="33" priority="1"/>
        <edge id="43to38" from="43" to="38" priority="1"/>
        <edge id="48to43" from="48" to="43" priority="1"/>

        <!-- Column 4 -->
        <edge id="4to9" from="4" to="9" priority="1"/>
        <edge id="9to14" from="9" to="14" priority="1"/>
        <edge id="14to19" from="14" to="19" priority="1"/>
        <edge id="19to24" from="19" to="24" priority="1"/>
        <edge id="24to29" from="24" to="29" priority="1"/>
        <edge id="29to34" from="29" to="34" priority="1"/>
        <edge id="34to39" from="34" to="39" priority="1"/>
        <edge id="39to44" from="39" to="44" priority="1"/>
        <edge id="44to49" from="44" to="49" priority="1"/>
        <edge id="9to4" from="9" to="4" priority="1"/>
        <edge id="14to9" from="14" to="9" priority="1"/>
        <edge id="19to14" from="19" to="14" priority="1"/>
        <edge id="24to19" from="24" to="19" priority="1"/>
        <edge id="29to24" from="29" to="24" priority="1"/>
        <edge id="34to29" from="34" to="29" priority="1"/>
        <edge id="39to34" from="39" to="34" priority="1"/>
        <edge id="44to39" from="44" to="39" priority="1"/>
        <edge id="49to44" from="49" to="44" priority="1"/>

        <!-- Column 5 -->
        <edge id="5to10" from="5" to="10" priority="1"/>
        <edge id="10to15" from="10" to="15" priority="1"/>
        <edge id="15to20" from="15" to="20" priority="1"/>
        <edge id="20to25" from="20" to="25" priority="1"/>
        <edge id="25to30" from="25" to="30" priority="1"/>
        <edge id="30to35" from="30" to="35" priority="1"/>
        <edge id="35to40" from="35" to="40" priority="1"/>
        <edge id="40to45" from="40" to="45" priority="1"/>
        <edge id="45to50" from="45" to="50" priority="1"/>
        <edge id="10to5" from="10" to="5" priority="1"/>
        <edge id="15to10" from="15" to="10" priority="1"/>
        <edge id="20to15" from="20" to="15" priority="1"/>
        <edge id="25to20" from="25" to="20" priority="1"/>
        <edge id="30to25" from="30" to="25" priority="1"/>
        <edge id="35to30" from="35" to="30" priority="1"/>
        <edge id="40to35" from="40" to="35" priority="1"/>
        <edge id="45to40" from="45" to="40" priority="1"/>
        <edge id="50to45" from="50" to="45" priority="1"/>
    </edges>
</net>
