<configuration>
    <input>
        <net-file value="my_network.net.xml"/>
        <route-files value="my_routes.rou.xml"/>
        <additional-files value="my_traffic_lights.add.xml"/>
    </input>
    <time>
        <begin value="0"/>
        <end value="1000"/>
    </time>
</configuration>
