<additional>
    <!-- Define traffic light logic for key intersections -->
    <tlLogic id="tl0" type="static" programID="0" offset="0">
        <phase duration="30" state="GrGrGrGr"/>
        <phase duration="10" state="yryryryr"/>
        <phase duration="30" state="rGrGrGrG"/>
        <phase duration="10" state="ryryryry"/>
    </tlLogic>

    <tlLogic id="tl1" type="static" programID="1" offset="0">
        <phase duration="25" state="GGrGGrG"/>
        <phase duration="10" state="rrryyyrr"/>
        <phase duration="25" state="GrGGrGrG"/>
        <phase duration="10" state="yyrryyrr"/>
    </tlLogic>

    <tlLogic id="tl2" type="static" programID="2" offset="0">
        <phase duration="20" state="GrGrGrGr"/>
        <phase duration="10" state="yryryryr"/>
        <phase duration="20" state="rGrGrGrG"/>
        <phase duration="10" state="ryryryry"/>
    </tlLogic>

    <tlLogic id="tl3" type="static" programID="3" offset="0">
        <phase duration="15" state="GrGrGrGr"/>
        <phase duration="5" state="yryryryr"/>
        <phase duration="15" state="rGrGrGrG"/>
        <phase duration="5" state="ryryryry"/>
    </tlLogic>
</additional>
